#======================================================================

# CRYSTAL DATA

#----------------------------------------------------------------------

data_VESTA_phase_1


_chemical_name_common                  'sm_isp_SD0307293-standardized_unitcell'
_cell_length_a                         6.86700
_cell_length_b                         6.86700
_cell_length_c                         6.86700
_cell_angle_alpha                      90
_cell_angle_beta                       90
_cell_angle_gamma                      90
_space_group_name_H-M_alt              'P 4 1 3'
_space_group_IT_number                 213

loop_
_space_group_symop_operation_xyz
   'x, y, z'
   '-x+1/2, -y, z+1/2'
   '-x, y+1/2, -z+1/2'
   'x+1/2, -y+1/2, -z'
   'z, x, y'
   'z+1/2, -x+1/2, -y'
   '-z+1/2, -x, y+1/2'
   '-z, x+1/2, -y+1/2'
   'y, z, x'
   '-y, z+1/2, -x+1/2'
   'y+1/2, -z+1/2, -x'
   '-y+1/2, -z, x+1/2'
   'y+3/4, x+1/4, -z+1/4'
   '-y+3/4, -x+3/4, -z+3/4'
   'y+1/4, -x+1/4, z+3/4'
   '-y+1/4, x+3/4, z+1/4'
   'x+3/4, z+1/4, -y+1/4'
   '-x+1/4, z+3/4, y+1/4'
   '-x+3/4, -z+3/4, -y+3/4'
   'x+1/4, -z+1/4, y+3/4'
   'z+3/4, y+1/4, -x+1/4'
   'z+1/4, -y+1/4, x+3/4'
   '-z+1/4, y+3/4, x+1/4'
   '-z+3/4, -y+3/4, -x+3/4'

loop_
   _atom_site_label
   _atom_site_occupancy
   _atom_site_fract_x
   _atom_site_fract_y
   _atom_site_fract_z
   _atom_site_adp_type
   _atom_site_B_iso_or_equiv
   _atom_site_type_symbol
   Mo1        1.0     0.125000      0.206000      0.456000     Biso  1.000000 Mo
   Al1        1.0     0.061000      0.061000      0.061000     Biso  1.000000 Al
   C1         1.0     0.375000      0.375000      0.375000     Biso  1.000000 C
